tests/data/correct/powermodels/frankenstein_70.raw
0,    100.00, 33, 0, 1, 60.00
A Frankenstein network for testing all of the core features of v33 data files
developed by Carleton Coffrin (cjc@lanl.gov) June 2017
1001,'FAV SPOT 01',   13.8000, 3, 101, 201, 301,1.00000000,   0.000000, 1.10000, 0.90000, 1.10000, 0.90000
1002,'FAV SPOT 02',  345.0000, 2, 101, 201, 301,1.00000000,   0.000000, 1.10000, 0.90000, 1.10000, 0.90000
1003,'FAV SPOT 03',   24.9000, 2, 101, 201, 301,1.00000000,   0.000000, 1.10000, 0.90000, 1.10000, 0.90000
1004,'FAV SPOT 04',   87.0000, 1, 101, 201, 301,1.05000000,   0.000000, 1.10000, 0.90000, 1.10000, 0.90000
1005,'FAV PLACE 05',  87.0000, 2, 101, 201, 301,1.00000000,   3.000000, 1.10000, 0.90000, 1.10000, 0.90000
1006,'FAV SPOT 06',   87.0000, 1, 101, 201, 301,1.00000000,  -1.000000, 1.10000, 0.90000, 1.10000, 0.90000
1007,'FAV PLACE 07', 230.0000, 1, 101, 201, 301,1.00000000,   2.000000, 1.10000, 0.90000, 1.10000, 0.90000
1008,'FAV PLC 08',    87.0000, 2, 101, 201, 301,0.95000000,   0.000000, 1.10000, 0.90000, 1.10000, 0.90000
1009,'FAV PLACE 09',  87.0000, 3, 101, 201, 301,1.00000000,   0.000000, 1.10000, 0.90000, 1.10000, 0.90000
0 / END OF BUS DATA, BEGIN LOAD DATA
1006,'L0',1, 101, 201,     6.600,     2.400,     0.000,     0.000,     0.000,     0.000, 301,1
1008,'LW',1, 101, 201,    18.900,     6.900,     0.000,     0.000,     0.000,     0.000, 301,1
1009,'Z0',1, 101, 201,    10.500,     2.300,     0.000,     0.000,     0.000,     0.000, 301,1
0 / END OF LOAD DATA, BEGIN FIXED SHUNT DATA
1009,'1 ', 1,     0.000,   105.300
0 / END OF FIXED SHUNT DATA, BEGIN GENERATOR DATA
1001,'1 ',     0.000,     0.000,    12.800,    -3.300,1.02000,    0,    31.800,   0.00000,   0.14200,   0.00000,   0.00000,1.00000,0,  100.0,   500.000,     0.000, 301,1.0000,   0,1.0000,   0,1.0000,   0,1.0000,0, 1.0000
1002,'1 ',    27.500,     2.000,     2.000,     2.000,1.02000,    0,    31.300,   0.00000,   0.23000,   0.00000,   0.00000,1.00000,1,  100.0,    27.500,    16.000, 301,1.0000,   0,1.0000,   0,1.0000,   0,1.0000,0, 1.0000
1009,'1 ',   -22.000,   -88.041,   250.000,  -250.000,1.03000,    0,   100.000,   0.00000,   1.00000,   0.00000,   0.00000,1.00000,1,  100.0,   250.000,  -250.000, 301,1.0000,   0,1.0000,   0,1.0000,   0,1.0000,0, 1.0000
1003,'W1',     3.700,    -3.900,    -3.900,    -3.900,1.00000,    0,    20.500,   0.00000,   0.30220,   0.00000,   0.00000,1.00000,1,  100.0,    18.700,     0.000, 301,1.0000,   0,1.0000,   0,1.0000,   0,1.0000,1, 1.0000
1005,'1 ',    20.000,   -23.413,   250.000,  -250.000,1.02000,    0,   320.000,   0.00000,   0.15000,   0.00000,   0.00000,1.00000,1,  100.0,   200.000,  -200.000, 301,1.0000,   0,1.0000,   0,1.0000,   0,1.0000,0, 1.0000
0 / END OF GENERATOR DATA, BEGIN BRANCH DATA
1004,1006,'1 ',7.05000E-3,3.80500E-2,0.00000E0,  1086.00,  1086.00,  1086.00,  0.00000,  0.00000,  0.00000,  0.00000,1,1,   0.8, 301,1.0000,   0,1.0000,   0,1.0000,   0,1.0000
1008,1005,'1 ',1.27800E-3,1.22940E-2,2.27080E-1,1086.00,1195.00,1086.00,  0.00000,  0.00000,  0.00000,  0.00000,1,1,  25.5, 301,1.0000,   0,1.0000,   0,1.0000,   0,1.0000
1005,1009,'1 ',4.75000E-4,4.68000E-3,8.20000E-2,1044.00,1170.00,1044.00,  0.00000,  0.00000,  0.00000,  0.00000,1,1,   9.4, 301,1.0000,   0,1.0000,   0,1.0000,   0,1.0000
0 / END OF BRANCH DATA, BEGIN TRANSFORMER DATA
1001,1004,    0,'1 ',1,1,1,1.00000E0,0.00000E0,2,'T1          ',1, 301,1.0000,   0,1.0000,   0,1.0000,   0,1.0000,'            '
  1.00000E-7,3.66800E-1, 100.00
  1.000000, 13.800,   0.000,  28.00,  28.00,  28.00,0,     0,1.500000,0.500000,0.984000,0.985000,9999, 0, 0.00000, 0.00000,  0.000
  1.000000, 34.500
1005,1002,    0,'1 ',1,1,1,0.00000E0,0.00000E0,2,'T2        ',1, 301,1.0000,   0,1.0000,   0,1.0000,   0,1.0000,'            '
  5.21000E-3,1.77370E-1, 100.00
  1.025000, 115.000,   0.000,  84.00,  84.00,  84.00,0,     0,1.500000,0.500000,1.500000,0.500000,9999, 0, 0.00000, 0.00000,  0.000
  1.000000,  13.800
1007,1006,1003,'1 ',2,1,2,9.75350E4,2.51000E-3,1,'T3 3W',1, 301,1.0000,   0,1.0000,   0,1.0000,   0,1.0000,'            '
  1.06000E-3,3.60970E-2, 144.00,4.95400E-3,2.01040E-1, 100.00,4.35300E-3,2.38183E-1, 100.00,0.98220001, -46.128800
  345.0000,345.000,   0.000, 336.00, 336.00,   0.00,0,     0,1.500000,0.510000,1.500000,0.510000,  2, 0, 0.00000, 0.00000,  0.000
  141.4500,138.000,   0.000, 268.00, 268.00,   0.00,0,     0,1.500000,0.510000,1.500000,0.510000,  5, 0, 0.00000, 0.00000,  0.000
  26.22000, 27.600,   0.000,  84.00,  84.00,   0.00,1,  1003,30.36000,24.84000,1.050000,1.025000, 17, 0, 0.00000, 0.00000,  0.000
0 / END OF TRANSFORMER DATA, BEGIN AREA DATA
101,    0, -1307.000,     1.000,'BEST AREA '
102,    0, -1307.000,     1.000,'WORST AREA'
0 / END OF AREA DATA, BEGIN TWO-TERMINAL DC DATA
'TTDC Ln 1', 0,     0.1000,     -20.00,       7.50,       0.00,     0.0000,    0.00000,I,       0.00,  20,1.00000
  1009,  2, 90.00, 18.10,  0.0140,  0.5780,  230.0, 0.09772, 1.00000, 1.00000, 1.00000, 0.00624,     0,     0,     0, 1, 0.00000
  1004,  2, 90.00, 17.40,  0.0140,  0.5670,  230.0, 0.07134, 1.00000, 1.00000, 1.00000, 0.00625,     0,     0,     0, 1, 0.00000
0 / END OF TWO-TERMINAL DC DATA, BEGIN VOLTAGE SOURCE CONVERTER DATA
'VSCDC Ln 1 ', 1, 0.0000, 1, 1.0, 0, 1.0, 0, 1.0, 0, 1.0
  1007, 1, 1, 142.000,1.03400,1118.6000,1.6400,  0.00, 226.00, 1499.79,0.5000, 100.00,-100.00,1007,100.00
  1008, 2, 1, -20.000,1.02100,1118.6000,1.6400,  0.00, 226.00, 1499.79,0.5000, 100.00,-100.00,1008,100.00
0 / END OF VOLTAGE SOURCE CONVERTER DATA, BEGIN IMPEDANCE CORRECTION DATA
1, -60.00,1.00000, -36.00,0.35800, -24.40,0.19100, -12.40,0.05300,  -8.30,0.02300,   0.00,0.01000,   8.30,0.02300,  12.40,0.05300,  24.40,0.19300,  36.00,0.35900,  60.00,1.00000
2, -70.00,1.00000, -43.00,0.79000, -32.00,0.86000,   0.00,0.50000,  32.00,0.84000,  43.00,0.79000,  70.00,1.00000
0 / END OF IMPEDANCE CORRECTION DATA, BEGIN MULTI-TERMINAL DC DATA
'MTDC Ln 1', 3, 3, 3, 0,    0,      0.00,    0
  1001, 2,90.00, 0.00, 0.0000, 0.0000, 138.0,1.00000,1.00000,1.50000,0.51000,0.00625,     0.00, 1.0000,  0.00000, 1
  1002, 2,90.00, 0.00, 0.0000, 0.0000, 138.0,1.00000,1.00000,1.50000,0.51000,0.00625,     0.00, 1.0000,  0.00000, 1
  1003, 2,90.00, 0.00, 0.0000, 0.0000, 138.0,1.00000,1.00000,1.50000,0.51000,0.00625,     0.00, 1.0000,  0.00000, 1
  1,1001, 101, 201,'1           ', 0,9999.0000,   301
  2,1002, 101, 201,'2           ', 0,9999.0000,   301
  3,1003, 101, 201,'2           ', 0,9999.0000,   301
  1,  2,'1',1,    0.0007,     0.00
  1,  3,'1',1,    0.0006,     0.00
  2,  3,'1',1,    0.0005,     0.00
0 / END OF MULTI-TERMINAL DC DATA, BEGIN MULTI-SECTION LINE DATA
  1006, 1008, &1, 1, 1009
0 / END OF MULTI-SECTION LINE DATA, BEGIN ZONE DATA
201,'FOO      '
0 / END OF ZONE DATA, BEGIN INTER-AREA TRANSFER DATA
101, 102, 1, 0.0
0 / END OF INTER-AREA TRANSFER DATA, BEGIN OWNER DATA
301,'BAR     '
0 / END OF OWNER DATA, BEGIN FACTS CONTROL DEVICE DATA
1,1004,    0, 1,   0.00,   0.00, 1.03477, 204.000,   0.00,0.90000,1.10000,1.00000,   0.000, 0.05000,100.0,301,  0.0000,  0.0000,0
1,1008, 1009, 1,   0.00,   0.00, 1.03376, 204.000,   0.00,0.90000,1.10000,1.00000,   0.000, 0.05000,100.0,301,  0.0000,  0.0000,0
0 / END OF FACTS CONTROL DEVICE DATA, BEGIN SWITCHED SHUNT DATA
1003,0,0,1,1.05000,0.95000,    0,100.0,'        ',    3.80, 9,   0.10, 7,   0.10, 7,   1.00
1005,0,0,1,1.04500,0.98000,    0,100.0,'        ',    6.00, 1,   6.00
0 /END OF SWITCHED SHUNT DATA, BEGIN GNE DEVICE DATA
0 /END OF GNE DEVICE DATA
Q
